1ps3_ligand_rnum.pdb
 OpenBabel02151809393D

 28 29  0  0  1  0  0  0  0  0999 V2000
   31.4730   66.7250    6.8040 C   0  0  1  0  0  0  0  0  0  0  0  0
   31.7420   67.6100    5.7130 O   0  0  0  0  0  0  0  0  0  0  0  0
   32.6900   66.7920    7.8050 C   0  0  2  0  0  0  0  0  0  0  0  0
   33.8510   66.3060    7.1450 O   0  0  0  0  0  0  0  0  0  0  0  0
   32.5080   66.1550    9.2240 C   0  0  2  0  0  0  0  0  0  0  0  0
   33.2470   65.3230    9.6780 O   0  0  0  0  0  0  0  0  0  0  0  0
   30.9360   65.5550    9.3520 C   0  0  1  0  0  0  0  0  0  0  0  0
   30.6120   65.4940   10.7760 N   0  0  0  0  0  0  0  0  0  0  0  0
   29.6480   66.3270   11.0980 C   0  0  0  0  0  0  0  0  0  0  0  0
   29.2090   66.4430   12.2430 O   0  0  0  0  0  0  0  0  0  0  0  0
   29.2300   67.0570    9.8380 C   0  0  0  0  0  0  0  0  0  0  0  0
   28.3440   67.9250    9.7440 O   0  0  0  0  0  0  0  0  0  0  0  0
   30.0150   66.5810    8.8480 N   0  0  0  0  0  0  0  0  0  0  0  0
   30.0950   67.1610    7.4490 C   0  0  2  0  0  0  0  0  0  0  0  0
   28.9260   66.6580    6.5580 C   0  0  0  0  0  0  0  0  0  0  0  0
   27.6460   66.9110    7.1600 O   0  0  0  0  0  0  0  0  0  0  0  0
   31.3890   65.7070    6.4240 H   0  0  0  0  0  0  0  0  0  0  0  0
   32.0890   68.4280    6.0380 H   0  0  0  0  0  0  0  0  0  0  0  0
   32.8930   67.8460    7.9710 H   0  0  0  0  0  0  0  0  0  0  0  0
   33.8220   66.4360    6.2050 H   0  0  0  0  0  0  0  0  0  0  0  0
   32.5870   66.9830    9.9300 H   0  0  0  0  0  0  0  0  0  0  0  0
   33.8610   65.7820   10.2410 H   0  0  0  0  0  0  0  0  0  0  0  0
   30.7810   64.5980    8.8560 H   0  0  0  0  0  0  0  0  0  0  0  0
   31.1420   64.9460   11.4410 H   0  0  0  0  0  0  0  0  0  0  0  0
   30.0430   68.2430    7.5230 H   0  0  0  0  0  0  0  0  0  0  0  0
   29.0120   65.5860    6.3780 H   0  0  0  0  0  0  0  0  0  0  0  0
   28.9490   67.1430    5.5870 H   0  0  0  0  0  0  0  0  0  0  0  0
   27.6060   67.8320    7.3950 H   0  0  0  0  0  0  0  0  0  0  0  0
  1 14  1  1  0  0  0
  2 18  1  0  0  0  0
  2  1  1  0  0  0  0
  3  1  1  6  0  0  0
  3 19  1  0  0  0  0
  4  3  1  0  0  0  0
  5  3  1  6  0  0  0
  5  6  1  0  0  0  0
  5 21  1  0  0  0  0
  6 22  1  0  0  0  0
  7  5  1  6  0  0  0
  7  8  1  0  0  0  0
  8  9  1  0  0  0  0
  8 24  1  0  0  0  0
  9 10  2  0  0  0  0
 11  9  1  0  0  0  0
 12 11  2  0  0  0  0
 13  7  1  0  0  0  0
 13 11  1  0  0  0  0
 14 25  1  1  0  0  0
 14 13  1  0  0  0  0
 15 16  1  0  0  0  0
 15 14  1  0  0  0  0
 16 28  1  0  0  0  0
 17  1  1  0  0  0  0
 20  4  1  0  0  0  0
 23  7  1  0  0  0  0
 26 15  1  0  0  0  0
 27 15  1  0  0  0  0
M  END
$$$$
