1f8c_ligand_rnum.pdb
 OpenBabel02151809393D

 38 38  0  0  1  0  0  0  0  0999 V2000
   23.6220   19.8430   64.7310 C   0  0  0  0  0  0  0  0  0  0  0  0
   24.2570   20.9160   64.8860 O   0  0  0  0  0  0  0  0  0  0  0  0
   22.4850   19.6690   65.2240 O   0  5  0  0  0  0  0  0  0  0  0  0
   24.2210   18.8310   63.9840 C   0  0  0  0  0  0  0  0  0  0  0  0
   23.5600   17.6820   63.5700 C   0  0  0  0  0  0  0  0  0  0  0  0
   24.2010   16.6430   62.6040 C   0  0  2  0  0  0  0  0  0  0  0  0
   23.7390   15.3230   63.0390 N   0  3  0  0  0  0  0  0  0  0  0  0
   25.7310   16.7040   62.6890 C   0  0  1  0  0  0  0  0  0  0  0  0
   26.2920   15.9280   61.5680 N   0  0  0  0  0  0  0  0  0  0  0  0
   26.9500   14.7930   61.7730 C   0  0  0  0  0  0  0  0  0  0  0  0
   27.1520   14.3300   62.8950 O   0  0  0  0  0  0  0  0  0  0  0  0
   27.4640   14.0820   60.5440 C   0  0  0  0  0  0  0  0  0  0  0  0
   26.1990   18.1920   62.5950 C   0  0  1  0  0  0  0  0  0  0  0  0
   25.5900   18.9820   63.6860 O   0  0  0  0  0  0  0  0  0  0  0  0
   27.7650   18.3640   62.7240 C   0  0  2  0  0  0  0  0  0  0  0  0
   28.1620   17.9130   64.0430 O   0  0  0  0  0  0  0  0  0  0  0  0
   28.1250   19.8500   62.5530 C   0  0  2  0  0  0  0  0  0  0  0  0
   27.7280   20.2830   61.2890 O   0  0  0  0  0  0  0  0  0  0  0  0
   29.6270   20.1300   62.7320 C   0  0  0  0  0  0  0  0  0  0  0  0
   30.4300   19.4150   61.8240 O   0  0  0  0  0  0  0  0  0  0  0  0
   22.5140   17.5420   63.8000 H   0  0  0  0  0  0  0  0  0  0  0  0
   23.8450   16.8410   61.5920 H   0  0  0  0  0  0  0  0  0  0  0  0
   24.1710   14.5980   62.4860 H   0  0  0  0  0  0  0  0  0  0  0  0
   23.9600   15.1950   64.0230 H   0  0  0  0  0  0  0  0  0  0  0  0
   22.7300   15.2820   62.9450 H   0  0  0  0  0  0  0  0  0  0  0  0
   26.0410   16.3290   63.6660 H   0  0  0  0  0  0  0  0  0  0  0  0
   26.1650   16.2780   60.6290 H   0  0  0  0  0  0  0  0  0  0  0  0
   28.1030   13.2440   60.8050 H   0  0  0  0  0  0  0  0  0  0  0  0
   26.6310   13.7080   59.9500 H   0  0  0  0  0  0  0  0  0  0  0  0
   28.0460   14.7690   59.9310 H   0  0  0  0  0  0  0  0  0  0  0  0
   25.8540   18.5990   61.6460 H   0  0  0  0  0  0  0  0  0  0  0  0
   28.2780   17.7620   61.9730 H   0  0  0  0  0  0  0  0  0  0  0  0
   29.1020   17.9810   64.1090 H   0  0  0  0  0  0  0  0  0  0  0  0
   27.5870   20.4440   63.2900 H   0  0  0  0  0  0  0  0  0  0  0  0
   28.2460   21.0380   61.0310 H   0  0  0  0  0  0  0  0  0  0  0  0
   29.9430   19.8760   63.7440 H   0  0  0  0  0  0  0  0  0  0  0  0
   29.8290   21.1940   62.6090 H   0  0  0  0  0  0  0  0  0  0  0  0
   30.5260   19.9370   61.0310 H   0  0  0  0  0  0  0  0  0  0  0  0
  1  2  2  0  0  0  0
  1  3  1  0  0  0  0
  4  1  1  0  0  0  0
  5 21  1  0  0  0  0
  5  4  2  0  0  0  0
  6  8  1  1  0  0  0
  6  7  1  0  0  0  0
  6  5  1  0  0  0  0
  7 24  1  0  0  0  0
  8 13  1  6  0  0  0
  8 26  1  0  0  0  0
  9 10  1  0  0  0  0
  9  8  1  0  0  0  0
 10 11  2  0  0  0  0
 12 28  1  0  0  0  0
 12 10  1  0  0  0  0
 13 31  1  6  0  0  0
 13 15  1  0  0  0  0
 13 14  1  0  0  0  0
 14  4  1  0  0  0  0
 15 32  1  6  0  0  0
 15 16  1  0  0  0  0
 16 33  1  0  0  0  0
 17 15  1  0  0  0  0
 17 19  1  0  0  0  0
 17 34  1  1  0  0  0
 18 17  1  0  0  0  0
 19 36  1  0  0  0  0
 20 19  1  0  0  0  0
 22  6  1  0  0  0  0
 23  7  1  0  0  0  0
 25  7  1  0  0  0  0
 27  9  1  0  0  0  0
 29 12  1  0  0  0  0
 30 12  1  0  0  0  0
 35 18  1  0  0  0  0
 37 19  1  0  0  0  0
 38 20  1  0  0  0  0
M  CHG  2   3  -1   7   1
M  END
$$$$
