1n1m_ligand_rnum.pdb
 OpenBabel02151809393D

 31 31  0  0  1  0  0  0  0  0999 V2000
   84.1890   77.2130   97.3480 C   0  0  0  0  0  0  0  0  0  0  0  0
   82.8540   76.3810   97.0320 C   0  0  0  0  0  0  0  0  0  0  0  0
   82.6620   75.5160   98.2090 N   0  0  0  0  0  0  0  0  0  0  0  0
   84.0340   75.2340   98.6920 C   0  0  0  0  0  0  0  0  0  0  0  0
   84.6320   76.6600   98.7760 C   0  0  0  0  0  0  0  0  0  0  0  0
   81.8000   74.3630   97.9530 C   0  0  0  0  0  0  0  0  0  0  0  0
   80.4200   74.3850   97.4480 C   0  0  2  0  0  0  0  0  0  0  0  0
   79.2960   74.2300   98.4320 C   0  0  0  0  0  0  0  0  0  0  0  0
   79.2210   75.2820   99.4580 C   0  0  0  0  0  0  0  0  0  0  0  0
   82.3220   73.1150   98.2010 O   0  0  0  0  0  0  0  0  0  0  0  0
   80.2150   73.3530   96.3790 N   0  3  0  0  0  0  0  0  0  0  0  0
   77.8050   74.2860   97.6340 C   0  0  0  0  0  0  0  0  0  0  0  0
   84.0250   78.2900   97.3540 H   0  0  0  0  0  0  0  0  0  0  0  0
   84.9490   76.9880   96.5990 H   0  0  0  0  0  0  0  0  0  0  0  0
   82.7280   75.9180   96.0850 H   0  0  0  0  0  0  0  0  0  0  0  0
   82.0340   77.0940   97.0760 H   0  0  0  0  0  0  0  0  0  0  0  0
   84.5810   74.6500   97.9490 H   0  0  0  0  0  0  0  0  0  0  0  0
   84.0030   74.6150   99.5770 H   0  0  0  0  0  0  0  0  0  0  0  0
   84.1570   77.2330   99.5690 H   0  0  0  0  0  0  0  0  0  0  0  0
   85.7100   76.6660   98.9280 H   0  0  0  0  0  0  0  0  0  0  0  0
   80.2980   75.3440   96.9540 H   0  0  0  0  0  0  0  0  0  0  0  0
   79.3860   73.2630   98.9320 H   0  0  0  0  0  0  0  0  0  0  0  0
   78.3720   75.1270  100.1250 H   0  0  0  0  0  0  0  0  0  0  0  0
   80.1160   75.2950  100.0810 H   0  0  0  0  0  0  0  0  0  0  0  0
   79.1140   76.2710   99.0100 H   0  0  0  0  0  0  0  0  0  0  0  0
   79.3260   73.4760   95.9130 H   0  0  0  0  0  0  0  0  0  0  0  0
   80.9450   73.4130   95.6780 H   0  0  0  0  0  0  0  0  0  0  0  0
   80.2510   72.4270   96.7900 H   0  0  0  0  0  0  0  0  0  0  0  0
   76.9800   74.2430   98.3450 H   0  0  0  0  0  0  0  0  0  0  0  0
   77.6950   75.2060   97.0600 H   0  0  0  0  0  0  0  0  0  0  0  0
   77.6710   73.4470   96.9510 H   0  0  0  0  0  0  0  0  0  0  0  0
  1 13  1  0  0  0  0
  1  5  1  0  0  0  0
  2 16  1  0  0  0  0
  2  1  1  0  0  0  0
  2  3  1  0  0  0  0
  3  4  1  0  0  0  0
  4  5  1  0  0  0  0
  4 18  1  0  0  0  0
  5 20  1  0  0  0  0
  5 19  1  0  0  0  0
  6 10  2  0  0  0  0
  6  3  1  0  0  0  0
  7 21  1  6  0  0  0
  7  6  1  0  0  0  0
  7  8  1  0  0  0  0
  8 22  1  0  0  0  0
  8  9  1  0  0  0  0
  9 24  1  0  0  0  0
  9 23  1  0  0  0  0
 11 28  1  0  0  0  0
 11  7  1  0  0  0  0
 12 29  1  0  0  0  0
 12  8  1  0  0  0  0
 14  1  1  0  0  0  0
 15  2  1  0  0  0  0
 17  4  1  0  0  0  0
 25  9  1  0  0  0  0
 26 11  1  0  0  0  0
 27 11  1  0  0  0  0
 30 12  1  0  0  0  0
 31 12  1  0  0  0  0
M  CHG  1  11   1
M  END
$$$$
