1f8d_ligand_rnum.pdb
 OpenBabel02151809393D

 38 38  0  0  1  0  0  0  0  0999 V2000
   23.5140   19.7240   64.7280 C   0  0  0  0  0  0  0  0  0  0  0  0
   24.0900   18.7100   63.9710 C   0  0  0  0  0  0  0  0  0  0  0  0
   23.4920   17.5310   63.6410 C   0  0  0  0  0  0  0  0  0  0  0  0
   24.1140   16.5690   62.5990 C   0  0  1  0  0  0  0  0  0  0  0  0
   25.6390   16.6600   62.6260 C   0  0  2  0  0  0  0  0  0  0  0  0
   26.0380   18.1480   62.5020 C   0  0  2  0  0  0  0  0  0  0  0  0
   27.5880   18.4190   62.6030 C   0  0  1  0  0  0  0  0  0  0  0  0
   27.8270   19.8870   62.2920 C   0  0  1  0  0  0  0  0  0  0  0  0
   29.1570   20.4070   62.8100 C   0  0  0  0  0  0  0  0  0  0  0  0
   27.0300   14.8540   61.6660 C   0  0  0  0  0  0  0  0  0  0  0  0
   27.5130   14.1200   60.4010 C   0  0  0  0  0  0  0  0  0  0  0  0
   26.1980   15.8800   61.5060 N   0  0  0  0  0  0  0  0  0  0  0  0
   24.2170   20.7420   64.9230 O   0  0  0  0  0  0  0  0  0  0  0  0
   22.3550   19.6200   65.1890 O   0  5  0  0  0  0  0  0  0  0  0  0
   23.7050   15.2960   62.9580 O   0  0  0  0  0  0  0  0  0  0  0  0
   25.4090   18.9120   63.5900 O   0  0  0  0  0  0  0  0  0  0  0  0
   27.9620   18.1150   63.9680 O   0  0  0  0  0  0  0  0  0  0  0  0
   27.7890   20.0350   60.9250 O   0  0  0  0  0  0  0  0  0  0  0  0
   30.3180   19.6480   62.2720 N   0  3  0  0  0  0  0  0  0  0  0  0
   27.4240   14.4780   62.7700 O   0  0  0  0  0  0  0  0  0  0  0  0
   22.4790   17.3330   63.9530 H   0  0  0  0  0  0  0  0  0  0  0  0
   23.7140   16.8100   61.6130 H   0  0  0  0  0  0  0  0  0  0  0  0
   25.9910   16.2930   63.5920 H   0  0  0  0  0  0  0  0  0  0  0  0
   25.6670   18.5270   61.5540 H   0  0  0  0  0  0  0  0  0  0  0  0
   28.1590   17.7780   61.9300 H   0  0  0  0  0  0  0  0  0  0  0  0
   27.0400   20.5040   62.7200 H   0  0  0  0  0  0  0  0  0  0  0  0
   29.1880   20.3650   63.8990 H   0  0  0  0  0  0  0  0  0  0  0  0
   29.2790   21.4580   62.5550 H   0  0  0  0  0  0  0  0  0  0  0  0
   28.3300   13.4380   60.6240 H   0  0  0  0  0  0  0  0  0  0  0  0
   26.6930   13.5470   59.9680 H   0  0  0  0  0  0  0  0  0  0  0  0
   27.8580   14.8390   59.6600 H   0  0  0  0  0  0  0  0  0  0  0  0
   25.8960   16.1240   60.5730 H   0  0  0  0  0  0  0  0  0  0  0  0
   23.9330   15.1600   63.8660 H   0  0  0  0  0  0  0  0  0  0  0  0
   27.2870   18.4560   64.5380 H   0  0  0  0  0  0  0  0  0  0  0  0
   28.1050   20.9020   60.6920 H   0  0  0  0  0  0  0  0  0  0  0  0
   31.1600   19.9350   62.7490 H   0  0  0  0  0  0  0  0  0  0  0  0
   30.1680   18.6580   62.4050 H   0  0  0  0  0  0  0  0  0  0  0  0
   30.4160   19.8590   61.2830 H   0  0  0  0  0  0  0  0  0  0  0  0
  1 13  2  0  0  0  0
  1 14  1  0  0  0  0
  2  1  1  0  0  0  0
  3 21  1  0  0  0  0
  3  2  2  0  0  0  0
  4  5  1  1  0  0  0
  4 15  1  0  0  0  0
  4  3  1  0  0  0  0
  5  6  1  6  0  0  0
  5 23  1  0  0  0  0
  6 24  1  6  0  0  0
  6  7  1  0  0  0  0
  6 16  1  0  0  0  0
  7 25  1  6  0  0  0
  7 17  1  0  0  0  0
  8  7  1  0  0  0  0
  8 26  1  1  0  0  0
  8  9  1  0  0  0  0
  9 27  1  0  0  0  0
 10 20  2  0  0  0  0
 11 29  1  0  0  0  0
 11 10  1  0  0  0  0
 12 10  1  0  0  0  0
 12  5  1  0  0  0  0
 15 33  1  0  0  0  0
 16  2  1  0  0  0  0
 17 34  1  0  0  0  0
 18  8  1  0  0  0  0
 19 37  1  0  0  0  0
 19 36  1  0  0  0  0
 19  9  1  0  0  0  0
 22  4  1  0  0  0  0
 28  9  1  0  0  0  0
 30 11  1  0  0  0  0
 31 11  1  0  0  0  0
 32 12  1  0  0  0  0
 35 18  1  0  0  0  0
 38 19  1  0  0  0  0
M  CHG  2  14  -1  19   1
M  END
$$$$
