1oyt_ligand_rnum.pdb
 OpenBabel02151809393D

 55 59  0  0  1  0  0  0  0  0999 V2000
   16.6950  -12.8160   22.7290 O   0  0  0  0  0  0  0  0  0  0  0  0
   17.4090  -12.5450   21.7800 C   0  0  0  0  0  0  0  0  0  0  0  0
   18.5310  -13.3290   21.4300 N   0  0  0  0  0  0  0  0  0  0  0  0
   18.8670  -14.5430   22.1730 C   0  0  0  0  0  0  0  0  0  0  0  0
   19.7880  -14.2110   23.3150 C   0  0  0  0  0  0  0  0  0  0  0  0
   19.2510  -14.0800   24.6100 C   0  0  0  0  0  0  0  0  0  0  0  0
   20.1060  -13.8060   25.6770 C   0  0  0  0  0  0  0  0  0  0  0  0
   21.4750  -13.6670   25.4130 C   0  0  0  0  0  0  0  0  0  0  0  0
   22.2470  -13.4240   26.4870 F   0  0  0  0  0  0  0  0  0  0  0  0
   22.0580  -13.7740   24.1420 C   0  0  0  0  0  0  0  0  0  0  0  0
   21.1740  -14.0520   23.0690 C   0  0  0  0  0  0  0  0  0  0  0  0
   19.0640  -12.9060   20.1780 C   0  0  0  0  0  0  0  0  0  0  0  0
   20.0420  -13.3920   19.6320 O   0  0  0  0  0  0  0  0  0  0  0  0
   18.2450  -11.8120   19.6630 C   0  0  1  0  0  0  0  0  0  0  0  0
   17.2170  -12.1980   18.6000 C   0  0  1  0  0  0  0  0  0  0  0  0
   15.7990  -12.4400   19.1400 N   0  3  2  0  0  0  0  0  0  0  0  0
   14.9690  -11.9970   17.9830 C   0  0  0  0  0  0  0  0  0  0  0  0
   15.8910  -12.1930   16.7360 C   0  0  0  0  0  0  0  0  0  0  0  0
   17.2510  -11.6720   17.2230 C   0  0  0  0  0  0  0  0  0  0  0  0
   15.8630  -11.3370   20.1940 C   0  0  1  0  0  0  0  0  0  0  0  0
   14.6700  -11.2040   21.0920 C   0  0  0  0  0  0  0  0  0  0  0  0
   13.9280  -12.3500   21.3610 C   0  0  0  0  0  0  0  0  0  0  0  0
   12.8510  -12.2910   22.2350 C   0  0  0  0  0  0  0  0  0  0  0  0
   12.5240  -11.0440   22.8370 C   0  0  0  0  0  0  0  0  0  0  0  0
   13.2700   -9.8900   22.5730 C   0  0  0  0  0  0  0  0  0  0  0  0
   14.3560   -9.9610   21.6950 C   0  0  0  0  0  0  0  0  0  0  0  0
   11.3830  -11.0010   23.7370 C   0  0  0  0  0  0  0  0  0  0  0  0
   10.5520  -12.0640   23.8870 N   0  3  0  0  0  0  0  0  0  0  0  0
   11.0790   -9.9100   24.4850 N   0  0  0  0  0  0  0  0  0  0  0  0
   17.2470  -11.4430   20.8070 C   0  0  1  0  0  0  0  0  0  0  0  0
   19.3610  -15.2570   21.5120 H   0  0  0  0  0  0  0  0  0  0  0  0
   17.9710  -15.0490   22.5370 H   0  0  0  0  0  0  0  0  0  0  0  0
   18.1910  -14.2010   24.7850 H   0  0  0  0  0  0  0  0  0  0  0  0
   19.7260  -13.7120   26.6830 H   0  0  0  0  0  0  0  0  0  0  0  0
   23.1210  -13.6530   23.9920 H   0  0  0  0  0  0  0  0  0  0  0  0
   21.5590  -14.1470   22.0650 H   0  0  0  0  0  0  0  0  0  0  0  0
   18.8730  -10.9790   19.3720 H   0  0  0  0  0  0  0  0  0  0  0  0
   17.4600  -13.2420   18.3840 H   0  0  0  0  0  0  0  0  0  0  0  0
   15.6480  -13.3790   19.4810 H   0  0  0  0  0  0  0  0  0  0  0  0
   14.6360  -10.9600   18.0480 H   0  0  0  0  0  0  0  0  0  0  0  0
   14.0820  -12.6250   17.9200 H   0  0  0  0  0  0  0  0  0  0  0  0
   15.5260  -11.6520   15.8620 H   0  0  0  0  0  0  0  0  0  0  0  0
   15.9540  -13.2500   16.4690 H   0  0  0  0  0  0  0  0  0  0  0  0
   18.0950  -12.0290   16.6330 H   0  0  0  0  0  0  0  0  0  0  0  0
   17.2590  -10.5820   17.2250 H   0  0  0  0  0  0  0  0  0  0  0  0
   15.8960  -10.3780   19.6700 H   0  0  0  0  0  0  0  0  0  0  0  0
   14.1820  -13.3050   20.9270 H   0  0  0  0  0  0  0  0  0  0  0  0
   12.2980  -13.1960   22.4340 H   0  0  0  0  0  0  0  0  0  0  0  0
   13.0340   -8.9430   23.0350 H   0  0  0  0  0  0  0  0  0  0  0  0
   14.9570   -9.0840   21.5050 H   0  0  0  0  0  0  0  0  0  0  0  0
    9.7310  -11.9820   24.4860 H   0  0  0  0  0  0  0  0  0  0  0  0
   10.7410  -12.9470   23.4320 H   0  0  0  0  0  0  0  0  0  0  0  0
   10.2040   -9.8820   25.0050 H   0  0  0  0  0  0  0  0  0  0  0  0
   11.6750   -9.0970   24.4680 H   0  0  0  0  0  0  0  0  0  0  0  0
   17.5530  -10.5220   21.2750 H   0  0  0  0  0  0  0  0  0  0  0  0
  2  1  2  0  0  0  0
  3  2  1  0  0  0  0
  3  4  1  0  0  0  0
  4 32  1  0  0  0  0
  4  5  1  0  0  0  0
  5  6  1  0  0  0  0
  6 33  1  0  0  0  0
  6  7  2  0  0  0  0
  7 34  1  0  0  0  0
  8  7  1  0  0  0  0
  8  9  1  0  0  0  0
 10  8  2  0  0  0  0
 11  5  2  0  0  0  0
 11 10  1  0  0  0  0
 12  3  1  0  0  0  0
 13 12  2  0  0  0  0
 14 15  1  6  0  0  0
 14 12  1  0  0  0  0
 15 16  1  1  0  0  0
 16 39  1  0  0  0  0
 16 20  1  1  0  0  0
 17 40  1  0  0  0  0
 17 16  1  0  0  0  0
 18 19  1  0  0  0  0
 18 17  1  0  0  0  0
 19 45  1  0  0  0  0
 19 15  1  0  0  0  0
 20 30  1  1  0  0  0
 20 21  1  0  0  0  0
 21 22  2  0  0  0  0
 21 26  1  0  0  0  0
 22 23  1  0  0  0  0
 23 48  1  0  0  0  0
 23 24  2  0  0  0  0
 24 27  1  0  0  0  0
 25 24  1  0  0  0  0
 25 49  1  0  0  0  0
 26 25  2  0  0  0  0
 27 28  2  0  0  0  0
 27 29  1  0  0  0  0
 28 51  1  0  0  0  0
 29 53  1  0  0  0  0
 30 14  1  6  0  0  0
 30 55  1  0  0  0  0
 30  2  1  0  0  0  0
 31  4  1  0  0  0  0
 35 10  1  0  0  0  0
 36 11  1  0  0  0  0
 37 14  1  0  0  0  0
 38 15  1  0  0  0  0
 41 17  1  0  0  0  0
 42 18  1  0  0  0  0
 43 18  1  0  0  0  0
 44 19  1  0  0  0  0
 46 20  1  0  0  0  0
 47 22  1  0  0  0  0
 50 26  1  0  0  0  0
 52 28  1  0  0  0  0
 54 29  1  0  0  0  0
M  CHG  2  16   1  28   1
M  END
$$$$
